**------------------------------------------------------------------------------
** ABAQUS/Standard performance benchmark S5: Stent expansion
**
**    This benchmark is a strongly nonlinear static analysis that
**    simulates the expansion of a medical stent device. The stent
**    is meshed with hexahedral elements of type C3D8 and uses a linear
**    elastic material model. The expansion tool is modeled using surface
**    elements of type SFM3DR. Contact is defined between the stent and
**    expansion tool. Radial displacements are applied to the expansion
**    tool which in turn cause the stent to expand. The nonlinearity in
**    this problem arises from large displacements and sliding contact.
**
**    Units: lbs, inches, s
**------------------------------------------------------------------------------
*HEADING
S5: Stent expansion
**
** Stent
**
*PART, NAME=Stent
*NODE,NSET=NStent
1,        0.000630,        0.028985,       -0.007920
2,        0.015038,        0.024787,        0.013459
3,        0.022609,        0.018149,        0.013459
4,        0.022609,        0.018149,        0.010765
5,        0.022609,        0.018149,        0.008070
6,        0.022609,        0.018149,        0.005376
7,        0.005654,        0.028435,       -0.000084
8,        0.006582,        0.028235,       -0.000048
9,       -0.000630,        0.028985,       -0.007920
10,       -0.001579,        0.028949,       -0.008145
11,       -0.002527,        0.028881,       -0.008370
12,       -0.003472,        0.028783,       -0.008595
13,       -0.004413,        0.028654,       -0.008820
14,        0.007504,        0.028004,       -0.000012
15,        0.008417,        0.027743,        0.000024
16,        0.009321,        0.027452,        0.000060
17,        0.010505,        0.027021,       -0.007915
18,        0.009321,        0.027452,       -0.007915
19,        0.008417,        0.027743,       -0.008140
20,        0.007504,        0.028004,       -0.008365
** ... 29218 like lines cut
*TRANSFORM,TYPE=C,NSET=NStent
0.0, 0.0, 0.0, 0.0, 0.0, 1.0
**
*ELEMENT, TYPE=C3D8, ELSET=EStent
1,        16,        15,     18558,       262,       516,     18560,     18557,     18563
2,       516,     18560,     18557,     18563,       515,       517,     18559,       524
3,        15,        14,       344,     18558,     18560,       519,     18561,     18557
4,     18560,       519,     18561,     18557,       517,       518,       712,     18559
5,     18558,       344,       341,       340,     18557,     18561,       711,     18562
6,     18557,     18561,       711,     18562,     18559,       712,       710,       709
7,       262,     18558,       340,       263,     18563,     18557,     18562,       526
8,     18563,     18557,     18562,       526,       524,     18559,       709,       525
9,        14,         8,     18565,       344,       519,     18567,     18564,     18561
10,       519,     18567,     18564,     18561,       518,       520,     18566,       712
11,         8,         7,       261,     18565,     18567,       523,     18568,     18564
12,     18567,       523,     18568,     18564,       520,       522,       748,     18566
13,     18565,       261,       260,       343,     18564,     18568,       715,     18569
14,     18564,     18568,       715,     18569,     18566,       748,       714,       713
15,       344,     18565,       343,       341,     18561,     18564,     18569,       711
16,     18561,     18564,     18569,       711,       712,     18566,       713,       710
17,       263,       340,     18571,       264,       526,     18562,     18570,     18575
18,       526,     18562,     18570,     18575,       525,       709,     18572,       919
19,       340,       341,       345,     18571,     18562,       711,     18573,     18570
20,     18562,       711,     18573,     18570,       709,       710,       982,     18572
** ... 15468 like lines cut
*ORIENTATION,SYSTEM=CYLINDRICAL,NAME=Cyl
0.0, 0.0, 0.0, 0.0, 0.0, 1.0
*SOLID SECTION, ELSET=ESTENT, MATERIAL=SUPER_ELASTIC, ORIENTATION=Cyl
**
*NSET, NSET=ZFix
4808,  6299,  9468,  9471, 10671, 11121, 14327, 14330
*NSET,NSET=CSym1
1148,  1116,  1130,  1332,  1335,  5468, 20224,  5459, 20356,  5589,  5467,  5469,  5458,  5587,  5588,
4599,  4349,  4348,  4347,  4598,  8277, 23088,  8272, 23081,  8275,  8276,  8278,  8271,  8273,  8274,
4205,  3472,  3473,  3474,  4206,  7667, 22458,  7664, 22464,  7671,  7666,  7665,  7663,  7672,  7670,
12292, 10686, 10655, 10651, 12291, 13985, 25718, 13980, 25711, 13983, 13984, 13986, 13979, 13981, 13982
*NSET,NSET=CSym2
2028,  1637,  1636,  1635,  2027,  5972, 20754,  5968, 20748,  5965,  5971,  5970,  5967,  5966,  5964,
12391, 12290, 12289, 12288, 12390, 14722, 26946, 14715, 26940, 14718, 14721, 14723, 14714, 14716, 14717,
10560, 10541, 10542, 10543, 10561, 13277, 25473, 13274, 25480, 13281, 13276, 13275, 13273, 13282, 13280,
8089,  2847,  2489,  2483,  8085,  9276, 22412,  9201, 22406,  9272,  9275,  9277,  9200,  9270,  9271
**
*ELSET, ELSET=_SInside_S2, INTERNAL, GENERATE
2,  15488,      2
*SURFACE, TYPE=ELEMENT, NAME=SInside
_SInside_S2, S2
*END PART
**
** Pipe
**
*PART, NAME=Pipe
*NODE, NSET=NPipe
100001,        0.020000,        0.000000,       -0.013250
100002,        0.019917,        0.001819,       -0.013250
100003,        0.019669,        0.003622,       -0.013250
100004,        0.019258,        0.005396,       -0.013250
100005,        0.018688,        0.007125,       -0.013250
100006,        0.017963,        0.008795,       -0.013250
100007,        0.017088,        0.010392,       -0.013250
100008,        0.016073,        0.011903,       -0.013250
100009,        0.014924,        0.013315,       -0.013250
100010,        0.013651,        0.014617,       -0.013250
100011,        0.012265,        0.015797,       -0.013250
100012,        0.010778,        0.016847,       -0.013250
100013,        0.009201,        0.017758,       -0.013250
100014,        0.007548,        0.018521,       -0.013250
100015,        0.005833,        0.019131,       -0.013250
100016,        0.004069,        0.019582,       -0.013250
100017,        0.002272,        0.019871,       -0.013250
100018,        0.000455,        0.019995,       -0.013250
100019,       -0.001365,        0.019953,       -0.013250
100020,       -0.003174,        0.019747,       -0.013250
** ... 330 like lines cut
*TRANSFORM, NSET=NPipe, TYPE=C
0.0, 0.0, 0.0,  0.0, 0.0, 1.0
**
*ELEMENT,TYPE=SFM3D4R, ELSET=EPipe
100001,    100001,    100002,    100102,    100101
100002,    100002,    100003,    100103,    100102
100003,    100003,    100004,    100104,    100103
100004,    100004,    100005,    100105,    100104
100005,    100005,    100006,    100106,    100105
100006,    100006,    100007,    100107,    100106
100007,    100007,    100008,    100108,    100107
100008,    100008,    100009,    100109,    100108
100009,    100009,    100010,    100110,    100109
100010,    100010,    100011,    100111,    100110
100011,    100011,    100012,    100112,    100111
100012,    100012,    100013,    100113,    100112
100013,    100013,    100014,    100114,    100113
100014,    100014,    100015,    100115,    100114
100015,    100015,    100016,    100116,    100115
100016,    100016,    100017,    100117,    100116
100017,    100017,    100018,    100118,    100117
100018,    100018,    100019,    100119,    100118
100019,    100019,    100020,    100120,    100119
100020,    100020,    100021,    100121,    100120
** ... 256 like lines cut
*SURFACE SECTION, ELSET=EPipe
**
*SURFACE, TYPE=ELEMENT, NAME=SOutside
EPipe, SPOS
*END PART
**
** Assembly
**
*ASSEMBLY, NAME=Assembly
*INSTANCE, NAME=Stent, PART=Stent
*END INSTANCE
**
*INSTANCE, NAME=Pipe, PART=Pipe
*END INSTANCE
*END ASSEMBLY
**
** Materials
**
*MATERIAL, NAME=SUPER_ELASTIC
*ELASTIC
6777324., 0.33
*DENSITY
1.0E2,
**
** Boundary conditions
**
*BOUNDARY
Pipe.NPipe, 1,1
Pipe.NPipe, 2,2
Pipe.NPipe, 3,3
Stent.ZFix,  3,3
Stent.CSym1, 2,2
Stent.CSym2, 2,2
**
** Interactions
**
*SURFACE INTERACTION, NAME=Int1
*SURFACE BEHAVIOR, PENALTY
, , 0.01
*CONTACT PAIR, INTERACTION=Int1, TYPE=SURFACE TO SURFACE
Stent.SInside, Pipe.SOutside
**
**------------------------------------------------------------------------------
*STEP, NAME=Step-1, NLGEOM=YES, UNSYMM=YES, INC=100,Convert Sdi=No
Expand stent
*STATIC
0.01, 1.0
**
*BOUNDARY
Pipe.NPipe, 1,1, 0.09
**
** Output requests
**
*OUTPUT, FIELD, NUMBER INTERVAL=10
*NODE OUTPUT
U,
*ELEMENT OUTPUT, ELSET=Stent.EStent
S,
*CONTACT OUTPUT
CSTRESS, CDISP
**
*OUTPUT, HISTORY, FREQ=1
*ENERGY OUTPUT
ALLAE, ALLIE, ALLWK, ALLSD, ETOTAL
**
*PRINT, SOLVE=YES
*END STEP

